Version 4
SHEET 1 2180 680
WIRE 304 16 112 16
WIRE 336 16 304 16
WIRE 416 16 400 16
WIRE 304 96 304 16
WIRE 416 96 416 16
WIRE 112 128 112 16
WIRE 800 192 800 160
WIRE 304 208 304 176
WIRE 416 208 416 176
WIRE 416 208 304 208
WIRE 480 208 416 208
WIRE 608 208 560 208
WIRE 704 208 672 208
WIRE 752 208 704 208
WIRE 304 240 304 208
WIRE 752 256 736 256
WIRE 112 272 112 208
WIRE 416 288 416 208
WIRE 480 288 416 288
WIRE 704 288 704 208
WIRE 704 288 544 288
WIRE 800 288 800 272
WIRE 304 368 304 320
FLAG 112 272 0
FLAG 304 368 0
FLAG 800 288 0
FLAG 736 256 0
SYMBOL voltage 112 112 R0
WINDOW 123 24 124 Left 2
WINDOW 39 0 0 Left 2
SYMATTR Value2 AC 1
SYMATTR SpiceLine ""
SYMATTR InstName V1
SYMBOL res 288 80 R0
SYMATTR InstName R1
SYMATTR Value 1.4Meg
SYMATTR SpiceLine ""
SYMBOL res 288 224 R0
SYMATTR InstName R2
SYMATTR Value 100k
SYMATTR SpiceLine ""
SYMBOL res 576 192 R90
WINDOW 0 0 56 VBottom 2
WINDOW 3 32 56 VTop 2
SYMATTR InstName R3
SYMATTR Value 33k
SYMATTR SpiceLine ""
SYMBOL res 400 80 R0
SYMATTR InstName R4
SYMATTR Value 10k
SYMATTR SpiceLine ""
SYMBOL cap 400 0 R90
WINDOW 0 0 32 VBottom 2
WINDOW 3 32 32 VTop 2
SYMATTR InstName C1
SYMATTR Value 47p
SYMATTR SpiceLine ""
SYMBOL cap 672 192 R90
WINDOW 0 0 32 VBottom 2
WINDOW 3 32 32 VTop 2
SYMATTR InstName C2
SYMATTR Value 680p
SYMATTR SpiceLine ""
SYMBOL cap 544 272 R90
WINDOW 0 0 32 VBottom 2
WINDOW 3 32 32 VTop 2
SYMATTR InstName C3
SYMATTR Value 22p
SYMATTR SpiceLine ""
SYMBOL e 800 176 R0
WINDOW 3 28 94 Left 2
SYMATTR Value Laplace=G_boost*(1+s/(2*pi*f_z))*(1-s/(2*pi*f_RHPZ))/(1+s/(2*pi*f0_boost*Q_boost)+(s/(2*pi*f0_boost))**2)
SYMATTR InstName E1
TEXT 568 -152 Left 2 !.ac dec 100 1 10Meg
TEXT 568 -112 Left 2 !;ac dec 100 1 200k
TEXT 1048 344 Left 2 !.param f0_boost 1437.495376
TEXT 1512 344 Left 2 !.param pi 3.14159265
TEXT 1048 376 Left 2 !.param G_boost 61.276596
TEXT 1048 408 Left 2 !.param Q_boost 0.744226
TEXT 1048 440 Left 2 !.param f_RHPZ 21167.640589
TEXT 1048 472 Left 2 !.param f_z 795774.715459
