Version 4
SHEET 1 1448 680
WIRE 272 -496 128 -496
WIRE 544 -496 400 -496
WIRE 128 -448 128 -496
WIRE 272 -448 272 -496
WIRE 304 -448 272 -448
WIRE 400 -448 400 -496
WIRE 400 -448 384 -448
WIRE 544 -448 544 -496
WIRE 272 -368 272 -448
WIRE 400 -368 400 -448
WIRE 128 -304 128 -384
WIRE 192 -304 128 -304
WIRE 544 -304 544 -384
WIRE 544 -304 480 -304
WIRE -208 -208 -336 -208
WIRE 192 -208 -208 -208
WIRE 896 -208 480 -208
WIRE 992 -208 896 -208
WIRE 1088 -208 992 -208
WIRE 1216 -208 1088 -208
WIRE 1248 -208 1216 -208
WIRE 992 -192 992 -208
WIRE 896 -176 896 -208
WIRE -208 -144 -208 -208
WIRE -336 -128 -336 -208
WIRE 1088 -128 1088 -208
WIRE 192 -112 64 -112
WIRE 560 -112 480 -112
WIRE 992 -96 992 -128
WIRE 1216 -48 1216 -208
WIRE 64 -16 64 -112
WIRE 64 -16 -112 -16
WIRE 192 -16 64 -16
WIRE 512 -16 480 -16
WIRE 896 -16 896 -96
WIRE 896 -16 512 -16
WIRE 512 0 512 -16
WIRE -112 80 -112 -16
WIRE 64 80 64 -16
WIRE 192 80 64 80
WIRE 512 80 512 64
WIRE 512 80 480 80
WIRE 608 80 512 80
WIRE 736 80 672 80
WIRE 896 80 896 -16
WIRE 896 80 816 80
WIRE 992 80 992 -16
WIRE 992 80 896 80
WIRE 896 112 896 80
WIRE -336 208 -336 -48
WIRE -208 208 -208 -80
WIRE -208 208 -336 208
WIRE -112 208 -112 144
WIRE -112 208 -208 208
WIRE 272 208 272 144
WIRE 272 208 -112 208
WIRE 432 208 272 208
WIRE 496 208 432 208
WIRE 560 208 560 -112
WIRE 560 208 496 208
WIRE 896 208 896 192
WIRE 896 208 560 208
WIRE 1088 208 1088 -64
WIRE 1088 208 896 208
WIRE 1216 208 1216 32
WIRE 1216 208 1088 208
WIRE 496 224 496 208
WIRE 432 240 432 208
WIRE 272 256 272 208
WIRE 400 336 400 144
WIRE 432 336 432 304
WIRE 432 336 400 336
WIRE 496 336 496 304
WIRE 496 336 432 336
WIRE 720 336 496 336
FLAG 272 256 0
FLAG 720 336 Vi
IOPIN 720 336 Out
FLAG 1248 -208 Vout
IOPIN 1248 -208 Out
FLAG -336 -208 Vin
IOPIN -336 -208 In
SYMBOL PowerProducts\\LTC3112 336 -112 R0
SYMATTR InstName U1
SYMBOL ind 288 -432 R270
WINDOW 0 32 56 VTop 2
WINDOW 3 5 56 VBottom 2
SYMATTR InstName L1
SYMATTR Value 10
SYMATTR SpiceLine Ipk=7 Rser=.0173
SYMBOL cap 112 -448 R0
SYMATTR InstName C1
SYMATTR Value 0.1
SYMATTR SpiceLine ""
SYMBOL cap 528 -448 R0
SYMATTR InstName C2
SYMATTR Value 0.1
SYMATTR SpiceLine ""
SYMBOL cap -224 -144 R0
SYMATTR InstName C3
SYMATTR Value 10
SYMATTR SpiceLine ""
SYMBOL cap -128 80 R0
SYMATTR InstName C4
SYMATTR Value 1
SYMATTR SpiceLine ""
SYMBOL voltage -336 -144 R0
WINDOW 123 0 0 Left 2
WINDOW 39 24 44 Left 2
SYMATTR Value2 ""
SYMATTR SpiceLine Rser=0
SYMATTR InstName V1
SYMATTR Value 14V
SYMBOL cap 1072 -128 R0
SYMATTR InstName C5
SYMATTR Value 200
SYMATTR SpiceLine ""
SYMBOL res 480 208 R0
SYMATTR InstName R1
SYMATTR Value 42.2k
SYMATTR SpiceLine ""
SYMBOL cap 416 240 R0
SYMATTR InstName C6
SYMATTR Value 100p
SYMATTR SpiceLine ""
SYMBOL res 880 -192 R0
SYMATTR InstName R2
SYMATTR Value 1.05MEG
SYMATTR SpiceLine ""
SYMBOL res 880 96 R0
SYMATTR InstName R3
SYMATTR Value 63.4k
SYMATTR SpiceLine ""
SYMBOL res 976 -112 R0
SYMATTR InstName R4
SYMATTR Value 10k
SYMATTR SpiceLine ""
SYMBOL res 832 64 R90
WINDOW 0 0 56 VBottom 2
WINDOW 3 32 56 VTop 2
SYMATTR InstName R5
SYMATTR Value 33k
SYMATTR SpiceLine ""
SYMBOL cap 976 -192 R0
SYMATTR InstName C7
SYMATTR Value 47p
SYMATTR SpiceLine ""
SYMBOL cap 496 0 R0
SYMATTR InstName C8
SYMATTR Value 22p
SYMATTR SpiceLine ""
SYMBOL cap 672 64 R90
WINDOW 0 0 32 VBottom 2
WINDOW 3 32 32 VTop 2
SYMATTR InstName C9
SYMATTR Value 150p
SYMATTR SpiceLine ""
SYMBOL res 1200 -64 R0
SYMATTR InstName R6
SYMATTR Value 1MEG
SYMATTR SpiceLine ""
TEXT -440 416 Left 2 !;tf Vout Vin
TEXT -376 -736 Left 2 !.tran 0 .01 0 steady
