* C:\_CHRobotics\Hardware\smartPower\LTC3112_opamp_feedback.asc
XU1 0 N008 N007 0 Vin MP_01 N005 Vi Vout MP_02 MP_03 N002 MP_04 N004 N001 MP_05 N003 N005 N005 LTC3112
L1 N001 N002 4.7
C1 N001 N003 0.1
C2 N002 N004 0.1
C3 Vin 0 10
C4 N005 0 1
V1 Vin 0 10 Rser=0
C5 Vout 0 47
R1 0 Vi 42.2k
C6 0 Vi 100p
R2 Vout N007 845k
R3 N007 0 158k
R4 N006 N007 10k
R5 N007 N009 33k
C7 Vout N006 47p
C8 N007 N008 22p
C9 N009 N008 680p
I1 Vout 0 0.5
;tf Vout Vin
.tran 0 800u 0 steady
.lib LTC3112.sub
.backanno
.end
