Version 4
SHEET 1 1792 680
WIRE 32 96 32 64
WIRE -16 112 -144 112
WIRE -144 128 -144 112
WIRE -16 160 -32 160
WIRE 32 192 32 176
WIRE -144 240 -144 208
FLAG 32 192 0
FLAG -32 160 0
FLAG -144 240 0
SYMBOL e 32 80 R0
WINDOW 3 28 94 Left 2
SYMATTR Value Laplace=G_boost*(1+s/(2*pi*f_z))*(1-s/(2*pi*f_RHPZ))/(1+s/(2*pi*f0_boost*Q_boost)+(s/(2*pi*f0_boost))**2)
SYMATTR InstName E1
SYMBOL voltage -144 112 R0
WINDOW 123 24 124 Left 2
WINDOW 39 0 0 Left 2
SYMATTR Value2 AC 1
SYMATTR SpiceLine ""
SYMATTR InstName V1
TEXT -56 248 Left 2 !.ac dec 100 1 200k
TEXT 280 248 Left 2 !.param f0_boost 1437.495376
TEXT 744 248 Left 2 !.param pi 3.14159265
TEXT 280 280 Left 2 !.param G_boost 61.276596
TEXT 280 312 Left 2 !.param Q_boost 0.744226
TEXT 280 344 Left 2 !.param f_RHPZ 21167.640589
TEXT 280 376 Left 2 !.param f_z 795774.715459
