Version 4
SHEET 1 1008 680
WIRE 32 96 32 64
WIRE -16 112 -144 112
WIRE -144 128 -144 112
WIRE -16 160 -32 160
WIRE 32 192 32 176
WIRE -144 240 -144 208
FLAG 32 192 0
FLAG -32 160 0
FLAG -144 240 0
SYMBOL e 32 80 R0
WINDOW 3 28 94 Left 2
SYMATTR Value Laplace=G_buck*(1+s/(2*pi*f_z))/(1+s/(2*pi*f0_buck)+(s/(2*pi*f0_buck))**2)
SYMATTR InstName E1
SYMBOL voltage -144 112 R0
SYMATTR InstName V1
SYMATTR Value ac 1
TEXT -56 248 Left 2 !.ac dec 100 1 200k
TEXT 192 312 Left 2 !.param G_buck 9.046580
TEXT 184 352 Left 2 !.param Q_buck 1.689852
TEXT 184 392 Left 2 !.param f0_buck 3627.057745
TEXT 192 280 Left 2 !.param f_z 795774.715459
TEXT 192 248 Left 2 !.param pi 3.14159
